*Heading
** Job name: metaball Model name: Model-1
** Generated by: Abaqus/CAE 2022
*Preprint, echo=NO, model=NO, history=NO, contact=NO
**
** PARTS
**
*Part, name=metaball
*Node
      1,   5.30835629,   26.6869087,   26.5803051
      2,   15.2366533,   22.8032627,   25.6190586
      3,   8.44850445,   12.6440802,   43.4856186
      4,   7.95756769,    10.680975,   44.6041107
      5,   8.82493019,    8.8527174,   45.0299225
      6, 0.0196487177,   12.4999847,   45.0299225
      7,   1.92573988,   13.1794395,   44.6041107
      8,   2.96672034,     14.91471,   43.4856186
      9,  -15.2366533,   22.8032627,   25.6190586
     10,  -5.30835629,   26.6869087,   26.5803051
     11,  -2.96672034,     14.91471,   43.4856186
     12,  -1.92574179,   13.1794376,   44.6041107
     13, -0.0196487177,   12.4999847,   45.0299225
     14,  -8.82493019,    8.8527174,   45.0299225
     15,  -7.95757008,    10.680975,   44.6041107
     16,  -8.44850445,   12.6440802,   43.4856186
     17,  -27.4608517,   5.46230316,     20.22966
     18,  -23.2733421,   15.5507507,   20.7000294
     19,  -12.6440802,   8.44850445,   43.4856186
     20,   -10.680975,   7.95756388,   44.6041107
** ... 1129 like lines cut
*Element, type=C3D4
   1, 1026, 1027, 1028,  885
   2, 1026, 1029,  859,  885
   3, 1026, 1030,  659, 1031
   4, 1026, 1032,  659, 1030
   5, 1033, 1034, 1035, 1036
   6, 1033,  880, 1037,  821
   7, 1033, 1038,  799,  882
   8, 1033,  821, 1037, 1039
   9, 1033,  882, 1040, 1038
  10, 1041,  886, 1042,  771
  11, 1041, 1043, 1044, 1045
  12, 1041, 1046, 1043, 1047
  13, 1041, 1045, 1048, 1042
  14,  838,   71, 1049, 1050
  15, 1051, 1052,  855, 1050
  16, 1053, 1051, 1052,  855
  17, 1049, 1052, 1050, 1054
  18, 1052, 1054,  856, 1050
  19, 1049,   71,   70, 1050
  20, 1051, 1052, 1050, 1049
** ... 3104 like lines cut
*Nset, nset=Set-1, generate
    1,  1149,     1
*Elset, elset=Set-1, generate
    1,  3124,     1
** Section: Section-1
*Solid Section, elset=Set-1, material=PU
,
*End Part
**  
**
** ASSEMBLY
**
*Assembly, name=Assembly
**  
*Instance, name=metaball-1, part=metaball
*End Instance
**  
*Node
      1, -7.65404223e-16,           0.,   45.0299225
*Nset, nset=Set-RP-1
 1,
*Nset, nset=Set-bottom, instance=metaball-1
 113, 114, 157, 158, 327, 328, 329, 330, 331, 332, 333, 334, 343, 344, 345, 346
 347, 348, 349, 350, 404, 405, 406, 407, 408, 409, 410, 411, 412, 413, 414, 415
 416, 417, 418, 419, 420, 421, 422, 423, 424, 425, 426, 427, 428, 429, 430, 431
 432, 433, 728, 729, 730, 731, 732, 733, 734, 735, 736, 737, 738, 739, 740, 741
 742, 743, 744, 745, 746, 747, 748, 749, 750, 751, 752, 753, 754
*Elset, elset=Set-bottom, instance=metaball-1
  105,  168,  174,  926, 1063, 1127, 1128, 1129, 1131, 1132, 1139, 1140, 1144, 1147, 1151, 1154
 1156, 1166, 1172, 1181, 1182, 1183, 1186, 1188, 1189, 1192, 1249, 1293, 1461, 1538, 1646, 1699
 2401, 2420, 2421, 2425, 2442, 2446, 2458, 2466, 2468, 2470, 2473, 2482, 2483, 2489, 2503, 2505
 2510, 2514, 2515, 2523, 2531, 2532, 2540, 2543, 2545, 2546, 2547, 2554, 2556, 2557, 2558, 2572
 2577, 2578, 2588, 2589, 2597, 2612, 2617, 2620, 2631, 2636, 2649, 2653, 2661, 2678, 2679, 2710
 2744, 2751, 2783, 2790, 2801, 2805, 2807, 2810, 2845, 2853, 2856, 2931, 2981, 2989, 3000, 3031
 3032, 3034, 3042, 3059, 3069, 3085, 3106, 3110
*Nset, nset=Set-bound, instance=metaball-1
   5,   6,  13,  14,  21,  22,  30,  31,  38,  39,  46,  47,  53,  54,  67,  68
 237, 247, 258, 277, 291, 304, 312, 318, 651, 652, 653, 654, 655, 656, 657, 658
 659, 660, 661, 662, 663, 664, 665, 666, 667, 668, 669, 670, 671, 672, 673, 674
 675, 676, 677, 678, 679, 680, 681, 682
*Elset, elset=Set-bound, instance=metaball-1
   53,   73,  102,  122,  138,  148,  153,  182,  183,  209,  228,  240,  255,  302,  303,  325
  406,  429,  481,  497,  498,  529,  550,  648,  665,  671,  683,  719,  721,  745,  776,  808
  810,  811,  830,  874,  959,  993, 1011, 1019, 1310, 1313, 1334, 1369, 1374, 1384, 1399, 1459
 1530, 1554, 1555, 1573, 1601, 1622, 1633, 1635, 1700, 1701, 1703, 1705, 1771, 1776, 1798, 1800
 1802, 1992, 2096, 2235, 2285, 2323, 2414, 2461, 2580, 2757, 2849, 2953, 2971, 2974, 3020, 3043
 3053, 3061, 3075, 3084, 3090, 3100
*Nset, nset=Set-surface, instance=metaball-1, generate
    1,  1025,     1
*Elset, elset=Set-surface, instance=metaball-1
   25,   30,   39,   53,   62,   71,   73,   75,   78,   80,   81,   83,   96,  102,  103,  105
  120,  122,  123,  125,  126,  128,  137,  138,  139,  141,  144,  148,  150,  153,  154,  161
  162,  164,  168,  169,  172,  174,  175,  177,  182,  183,  188,  198,  203,  204,  205,  206
  209,  210,  215,  217,  218,  220,  221,  222,  228,  234,  238,  240,  242,  245,  251,  255
  256,  257,  262,  263,  266,  267,  272,  275,  277,  281,  285,  286,  288,  291,  292,  295
  298,  302,  303,  312,  315,  318,  321,  322,  325,  326,  328,  333,  338,  347,  352,  355
  357,  368,  370,  389,  392,  394,  400,  404,  406,  409,  416,  419,  421,  422,  425,  429
  430,  442,  443,  444,  450,  457,  460,  462,  467,  470,  473,  475,  477,  480,  481,  487
  490,  493,  497,  498,  499,  521,  522,  527,  529,  530,  533,  536,  537,  538,  539,  544
  546,  548,  549,  550,  561,  564,  566,  569,  571,  573,  579,  582,  587,  589,  590,  592
  607,  611,  612,  613,  616,  617,  619,  620,  621,  627,  637,  638,  642,  643,  644,  648
  649,  650,  655,  656,  657,  660,  665,  666,  669,  671,  674,  677,  678,  681,  683,  684
  685,  687,  701,  703,  707,  709,  710,  711,  712,  719,  721,  725,  726,  731,  735,  740
  741,  745,  748,  751,  752,  753,  754,  756,  758,  763,  768,  772,  773,  775,  776,  777
  778,  781,  782,  785,  790,  793,  795,  797,  800,  808,  810,  811,  814,  824,  830,  834
  839,  842,  848,  853,  855,  858,  862,  863,  865,  870,  872,  873,  874,  875,  876,  877
  882,  883,  885,  887,  888,  889,  890,  891,  892,  893,  894,  895,  899,  900,  901,  903
  907,  909,  910,  911,  912,  913,  914,  915,  916,  917,  921,  923,  926,  927,  928,  929
  935,  936,  937,  938,  940,  942,  943,  944,  945,  947,  948,  949,  951,  952,  954,  955
  956,  959,  961,  963,  964,  965,  966,  967,  969,  970,  971,  975,  976,  977,  979,  980
** ... 94 like lines cut
*Nset, nset=Set-zero, instance=metaball-1
 111, 112, 113, 114, 117, 118, 123, 124, 130, 131, 136, 137, 142, 143, 148, 149
 153, 154, 157, 158, 162, 164, 170, 172, 178, 180, 186, 188, 194, 196, 202, 204
 210, 212, 222, 223, 227, 228, 319, 320, 321, 322, 323, 324, 325, 326, 327, 328
 329, 330, 331, 332, 333, 334, 335, 336, 337, 338, 339, 340, 341, 342, 343, 344
 345, 346, 347, 348, 349, 350, 353, 354, 359, 360, 369, 370, 379, 380, 388, 389
 395, 396, 400, 401, 404, 405, 406, 407, 408, 409, 410, 411, 412, 413, 414, 415
 416, 417, 418, 419, 420, 421, 422, 423, 424, 425, 426, 427, 428, 429, 430, 431
 432, 433, 595, 596, 728, 729, 730, 731, 732, 733, 734, 735, 736, 737, 738, 739
 740, 741, 742, 743, 744, 745, 746, 747, 748, 749, 750, 751, 752, 753, 754, 907
 908, 909, 910, 911, 912, 913, 914, 915, 916, 917, 918, 919, 920, 921, 922, 923
 924, 925, 926
*Elset, elset=Set-zero, instance=metaball-1
  105,  168,  174,  926, 1063, 1080, 1116, 1125, 1126, 1127, 1128, 1129, 1130, 1131, 1132, 1133
 1136, 1138, 1139, 1140, 1142, 1144, 1145, 1146, 1147, 1148, 1151, 1154, 1156, 1157, 1159, 1160
 1165, 1166, 1167, 1171, 1172, 1174, 1175, 1178, 1180, 1181, 1182, 1183, 1186, 1188, 1189, 1191
 1192, 1193, 1249, 1261, 1266, 1268, 1293, 1461, 1538, 1547, 1592, 1646, 1671, 1699, 1702, 1878
 2065, 2077, 2119, 2212, 2383, 2388, 2393, 2401, 2420, 2421, 2425, 2442, 2446, 2454, 2458, 2466
 2468, 2470, 2473, 2482, 2483, 2489, 2494, 2503, 2505, 2506, 2509, 2510, 2513, 2514, 2515, 2516
 2523, 2526, 2529, 2531, 2532, 2533, 2536, 2538, 2540, 2543, 2545, 2546, 2547, 2554, 2556, 2557
 2558, 2560, 2564, 2572, 2577, 2578, 2587, 2588, 2589, 2592, 2597, 2605, 2610, 2611, 2612, 2614
 2617, 2620, 2622, 2625, 2629, 2631, 2636, 2641, 2645, 2647, 2648, 2649, 2651, 2653, 2661, 2671
 2673, 2677, 2678, 2679, 2684, 2686, 2709, 2710, 2711, 2715, 2737, 2743, 2744, 2751, 2754, 2758
 2761, 2765, 2767, 2783, 2789, 2790, 2801, 2805, 2807, 2810, 2813, 2845, 2847, 2853, 2856, 2866
 2876, 2877, 2879, 2883, 2931, 2935, 2938, 2940, 2944, 2967, 2975, 2981, 2984, 2985, 2989, 2999
 3000, 3001, 3007, 3008, 3009, 3031, 3032, 3034, 3036, 3039, 3040, 3041, 3042, 3044, 3054, 3059
 3067, 3069, 3072, 3073, 3078, 3081, 3085, 3087, 3093, 3096, 3097, 3105, 3106, 3107, 3110, 3111
 3112, 3115, 3117
*Elset, elset=_Surf-bottom_S2, internal, instance=metaball-1
  105,  168,  174, 1147, 2466, 2468, 2532, 2557, 2578, 2649, 2710, 2751, 2790, 2807, 2810, 2853
 2856, 3042
*Elset, elset=_Surf-bottom_S1, internal, instance=metaball-1
  926, 1699, 2401, 2442, 2446, 2458, 2503, 2510, 2545, 2556, 2597, 2678, 2744, 2801, 3031, 3034
 3085,
*Elset, elset=_Surf-bottom_S3, internal, instance=metaball-1
 1063, 1127, 1128, 1129, 1131, 1132, 1139, 1140, 1144, 1151, 1154, 1156, 1166, 1172, 1181, 1182
 1183, 1186, 1188, 1189, 1192, 1293, 1461, 1646, 2421, 2482, 2483, 2546, 2547, 2558, 2572, 2588
 2589, 2617, 2631, 2636, 2653, 2661, 2679, 2805, 2845, 2931, 2981, 2989, 3000, 3059, 3069, 3106
*Elset, elset=_Surf-bottom_S4, internal, instance=metaball-1
 1249, 1538, 2420, 2425, 2470, 2473, 2489, 2505, 2514, 2515, 2523, 2531, 2540, 2543, 2554, 2577
 2612, 2620, 2783, 3032, 3110
*Surface, type=ELEMENT, name=Surf-bottom
_Surf-bottom_S2, S2
_Surf-bottom_S1, S1
_Surf-bottom_S4, S4
_Surf-bottom_S3, S3
*Elset, elset=_Surf-bound_S3, internal, instance=metaball-1
   53,  153,  209,  240,  255,  302,  303,  406,  429,  497,  498,  529,  648,  665,  721,  745
  776,  808,  810,  811,  874,  959,  993, 1011, 1019, 1310, 1313, 1334, 1369, 1374, 1384, 1399
 1459, 1530, 1554, 1555, 1601, 1622, 1635, 1700, 1701, 1703, 1705, 1776, 1798, 1800, 1802, 1992
 2096, 2235, 2323, 2414, 2461, 2849, 2953, 2974, 3020, 3043, 3053, 3061, 3075, 3084
*Elset, elset=_Surf-bound_S2, internal, instance=metaball-1
   73,  182,  183,  671, 1633, 2285, 2580, 2757, 2971, 3100
*Elset, elset=_Surf-bound_S4, internal, instance=metaball-1
  102,  122,  138,  325,  481,  550,  683,  719,  830, 1573
*Elset, elset=_Surf-bound_S1, internal, instance=metaball-1
  148,  228, 1771, 3090
*Surface, type=ELEMENT, name=Surf-bound
_Surf-bound_S3, S3
_Surf-bound_S2, S2
_Surf-bound_S4, S4
_Surf-bound_S1, S1
** Constraint: Constraint-1
*Coupling, constraint name=Constraint-1, ref node=Set-RP-1, surface=Surf-bound
*Kinematic
** 
** INTEGRATED OUTPUT SECTIONS
** 
*Integrated Output Section, name=I-Section-1, surface=Surf-bottom, project orientation=NO
*End Assembly
** 
** MATERIALS
** 
*Material, name=PU
*Elastic
 5.25, 0.475
** 
** BOUNDARY CONDITIONS
** 
** Name: BC-bottom Type: Symmetry/Antisymmetry/Encastre
*Boundary
Set-bottom, ENCASTRE
** ----------------------------------------------------------------
** 
** STEP: Step-1
** 
*Step, name=Step-1, nlgeom=YES
*Static
1., 1., 1e-05, 1.
** 
** BOUNDARY CONDITIONS
** 
** Name: BC-RP Type: Displacement/Rotation
*Boundary
Set-RP-1, 1, 1, u1
Set-RP-1, 2, 2, u2
Set-RP-1, 3, 3, u3
Set-RP-1, 4, 4, ur1
Set-RP-1, 5, 5, ur2
Set-RP-1, 6, 6, ur3
** 
** OUTPUT REQUESTS
** 
*Restart, write, frequency=0
** 
** FIELD OUTPUT: F-Output-1
** 
*Output, field
*Node Output
U, 
*Element Output, directions=YES
S, 
** 
** HISTORY OUTPUT: H-Output-1
** 
*Output, history
*Integrated Output, section=I-Section-1
SOF, SOM
*End Step
