*Heading
** Job name: metaball Model name: Model-1
** Generated by: Abaqus/CAE 2022
*Preprint, echo=NO, model=NO, history=NO, contact=NO
**
** PARTS
**
*Part, name=metaball
*Node
      1,   5.30835629,   26.6869087,   26.5803051
      2,   15.2366533,   22.8032627,   25.6190586
      3,   8.44850445,   12.6440802,   43.4856186
      4,   7.95756769,    10.680975,   44.6041107
      5,   8.82493019,    8.8527174,   45.0299225
      6, 0.0196487177,   12.4999847,   45.0299225
      7,   1.92573988,   13.1794395,   44.6041107
      8,   2.96672034,     14.91471,   43.4856186
      9,  -15.2366533,   22.8032627,   25.6190586
     10,  -5.30835629,   26.6869087,   26.5803051
     11,  -2.96672034,     14.91471,   43.4856186
     12,  -1.92574179,   13.1794376,   44.6041107
     13, -0.0196487177,   12.4999847,   45.0299225
     14,  -8.82493019,    8.8527174,   45.0299225
     15,  -7.95757008,    10.680975,   44.6041107
     16,  -8.44850445,   12.6440802,   43.4856186
     17,  -27.4608517,   5.46230316,     20.22966
     18,  -23.2733421,   15.5507507,   20.7000294
     19,  -12.6440802,   8.44850445,   43.4856186
     20,   -10.680975,   7.95756388,   44.6041107
** ... 1340 like lines cut
*Element, type=C3D4
   1, 1141, 1142,  771, 1143
   2, 1144,   95, 1145, 1146
   3,  771, 1141, 1147, 1142
   4, 1142, 1143, 1148, 1149
   5, 1147, 1148,  664, 1150
   6, 1150,  674, 1151, 1152
   7, 1142, 1147, 1150, 1148
   8,   13, 1145, 1144,   94
   9, 1153, 1141, 1148, 1147
  10, 1141, 1148, 1147, 1142
  11, 1144, 1154,    7,   95
  12,  955, 1155, 1156, 1157
  13, 1157, 1158,  800,  798
  14, 1157, 1159,  952, 1155
  15, 1157, 1155,  952,  955
  16, 1142, 1141, 1148, 1143
  17, 1142,  960, 1150,  762
  18, 1153, 1143, 1148, 1141
  19, 1141, 1153,  101, 1147
  20,  893,  771, 1141, 1147
** ... 3999 like lines cut
*Nset, nset=Set-1, generate
    1,  1360,     1
*Elset, elset=Set-1, generate
    1,  4019,     1
** Section: Section-1
*Solid Section, elset=Set-1, material=PU
,
*End Part
**  
**
** ASSEMBLY
**
*Assembly, name=Assembly
**  
*Instance, name=metaball-1, part=metaball
*End Instance
**  
*Node
      1, -7.65404223e-16,           0.,   45.0299225
*Nset, nset=Set-RP-1
 1,
*Nset, nset=Set-bottom, instance=metaball-1
 113, 114, 157, 158, 327, 328, 329, 330, 331, 332, 333, 334, 343, 344, 345, 346
 347, 348, 349, 350, 404, 405, 406, 407, 408, 409, 410, 411, 412, 413, 414, 415
 416, 417, 418, 419, 420, 421, 422, 423, 424, 425, 426, 427, 428, 429, 430, 431
 432, 433, 734, 735, 736, 737, 738, 739, 740, 741, 742, 743, 744, 745, 746, 747
 748, 749, 750, 751, 752, 753, 754, 755, 756, 757, 758, 759, 760
*Elset, elset=Set-bottom, instance=metaball-1
  337,  369,  370,  406,  507,  638,  704,  733,  767,  808,  818,  845,  871,  954, 1358, 1629
 1925, 1926, 1929, 1932, 1941, 1942, 1945, 1946, 1955, 1960, 1963, 1969, 1973, 1975, 1978, 1994
 1995, 1999, 2003, 2005, 2008, 2010, 2013, 2061, 2110, 2156, 2163, 2183, 2255, 2369, 2386, 2506
 2573, 2654, 2795, 2862, 2888, 2940, 3195, 3221, 3320, 3457, 3465, 3485, 3499, 3526, 3551, 3608
 3618, 3631, 3653, 3714, 3730, 3733, 3758, 3774, 3776, 3820, 3827, 3838, 3841, 3843, 3853, 3857
 3860, 3867, 3868, 3880, 3900, 3902, 3912, 3917, 3929, 3933, 3944, 3955, 3956, 3972, 3977, 3980
 3987, 3996, 3998, 4001, 4008, 4010, 4013, 4014
*Nset, nset=Set-bound, instance=metaball-1
   5,   6,  13,  14,  21,  22,  30,  31,  38,  39,  46,  47,  53,  54,  67,  68
 237, 247, 258, 277, 291, 304, 312, 318, 652, 653, 654, 655, 656, 657, 658, 659
 660, 661, 662, 663, 664, 665, 666, 667, 668, 669, 670, 671, 672, 673, 674, 675
 676, 677, 678, 679, 680, 681, 682, 683, 684, 685, 686, 687
*Elset, elset=Set-bound, instance=metaball-1
  181,  566,  657,  660,  708,  952,  979, 1085, 1087, 1141, 1168, 1210, 1480, 1494, 1729, 1777
 1827, 1910, 1991, 2035, 2099, 2155, 2248, 2278, 2297, 2494, 2495, 2555, 2566, 2658, 2671, 2673
 2674, 2680, 2739, 2750, 2798, 2831, 2832, 2833, 2840, 2864, 2865, 2873, 2875, 2880, 2928, 2932
 2933, 2985, 3021, 3024, 3059, 3071, 3106, 3107, 3124, 3129, 3138, 3145, 3151, 3156, 3168, 3169
 3170, 3193, 3209, 3211, 3214, 3220, 3230, 3240, 3241, 3248, 3264, 3267, 3269, 3285, 3290, 3293
 3295, 3300, 3301, 3302, 3304, 3307, 3313, 3317, 3329, 3335, 3339, 3359, 3373, 3376
*Nset, nset=Set-surface, instance=metaball-1, generate
    1,  1140,     1
*Elset, elset=Set-surface, instance=metaball-1
   28,   31,   51,   61,   77,  106,  122,  132,  136,  168,  181,  192,  193,  196,  202,  204
  205,  213,  214,  221,  222,  223,  225,  228,  234,  235,  238,  239,  240,  241,  243,  248
  249,  251,  252,  260,  267,  269,  270,  272,  288,  291,  304,  312,  314,  315,  322,  323
  326,  327,  329,  331,  332,  337,  339,  340,  341,  346,  355,  357,  360,  366,  367,  369
  370,  374,  381,  383,  384,  390,  399,  401,  402,  406,  407,  408,  411,  420,  422,  433
  436,  438,  439,  440,  442,  447,  459,  460,  469,  470,  473,  487,  489,  493,  497,  499
  507,  512,  514,  515,  516,  517,  520,  521,  522,  524,  525,  526,  529,  543,  554,  566
  568,  574,  593,  594,  595,  599,  604,  607,  614,  628,  638,  657,  660,  662,  669,  674
  679,  702,  704,  708,  722,  733,  735,  736,  746,  750,  751,  752,  760,  761,  767,  768
  772,  776,  784,  808,  811,  814,  818,  826,  829,  830,  832,  839,  840,  842,  845,  846
  849,  860,  871,  872,  875,  877,  886,  887,  888,  901,  910,  916,  917,  921,  922,  930
  935,  941,  943,  944,  950,  952,  953,  954,  955,  956,  961,  964,  965,  966,  973,  976
  979,  992,  993, 1004, 1008, 1013, 1019, 1020, 1026, 1027, 1035, 1038, 1040, 1044, 1046, 1049
 1050, 1061, 1062, 1071, 1076, 1081, 1085, 1086, 1087, 1092, 1093, 1094, 1099, 1103, 1108, 1110
 1113, 1126, 1135, 1140, 1141, 1145, 1147, 1156, 1160, 1162, 1168, 1171, 1173, 1174, 1175, 1176
 1178, 1196, 1198, 1199, 1201, 1202, 1205, 1207, 1210, 1214, 1216, 1224, 1231, 1232, 1237, 1244
 1253, 1257, 1262, 1263, 1266, 1295, 1298, 1303, 1316, 1320, 1321, 1322, 1323, 1324, 1325, 1326
 1328, 1330, 1332, 1333, 1335, 1337, 1338, 1357, 1358, 1362, 1364, 1368, 1372, 1373, 1374, 1375
 1376, 1378, 1380, 1381, 1385, 1388, 1390, 1391, 1392, 1394, 1399, 1400, 1402, 1404, 1414, 1415
 1421, 1426, 1427, 1428, 1429, 1435, 1438, 1440, 1441, 1444, 1445, 1453, 1454, 1456, 1457, 1459
** ... 109 like lines cut
*Nset, nset=Set-zero, instance=metaball-1
  111,  112,  113,  114,  117,  118,  123,  124,  130,  131,  136,  137,  142,  143,  148,  149
  153,  154,  157,  158,  162,  164,  170,  172,  178,  180,  186,  188,  194,  196,  202,  204
  210,  212,  222,  223,  227,  228,  319,  320,  321,  322,  323,  324,  325,  326,  327,  328
  329,  330,  331,  332,  333,  334,  335,  336,  337,  338,  339,  340,  341,  342,  343,  344
  345,  346,  347,  348,  349,  350,  353,  354,  359,  360,  369,  370,  379,  380,  388,  389
  395,  396,  400,  401,  404,  405,  406,  407,  408,  409,  410,  411,  412,  413,  414,  415
  416,  417,  418,  419,  420,  421,  422,  423,  424,  425,  426,  427,  428,  429,  430,  431
  432,  433,  595,  596,  734,  735,  736,  737,  738,  739,  740,  741,  742,  743,  744,  745
  746,  747,  748,  749,  750,  751,  752,  753,  754,  755,  756,  757,  758,  759,  760, 1022
 1023, 1024, 1025, 1026, 1027, 1028, 1029, 1030, 1031, 1032, 1033, 1034, 1035, 1036, 1037, 1038
 1039, 1040, 1041
*Elset, elset=Set-zero, instance=metaball-1
   51,  168,  204,  337,  369,  370,  406,  407,  507,  599,  638,  704,  733,  767,  808,  818
  845,  871,  943,  954,  965, 1026, 1103, 1176, 1178, 1205, 1237, 1257, 1358, 1438, 1459, 1526
 1560, 1629, 1907, 1919, 1921, 1925, 1926, 1927, 1929, 1932, 1933, 1937, 1940, 1941, 1942, 1945
 1946, 1948, 1953, 1955, 1957, 1958, 1960, 1963, 1964, 1969, 1971, 1973, 1974, 1975, 1976, 1978
 1982, 1983, 1988, 1989, 1992, 1994, 1995, 1999, 2001, 2002, 2003, 2004, 2005, 2006, 2008, 2009
 2010, 2012, 2013, 2028, 2061, 2101, 2107, 2109, 2110, 2140, 2156, 2163, 2183, 2233, 2240, 2255
 2366, 2369, 2386, 2506, 2529, 2573, 2654, 2706, 2795, 2850, 2862, 2888, 2940, 3047, 3137, 3195
 3221, 3232, 3283, 3320, 3367, 3406, 3408, 3409, 3447, 3457, 3465, 3483, 3485, 3491, 3499, 3504
 3513, 3526, 3534, 3536, 3543, 3544, 3551, 3553, 3563, 3572, 3576, 3582, 3590, 3608, 3609, 3618
 3619, 3628, 3631, 3648, 3649, 3653, 3655, 3656, 3668, 3678, 3681, 3685, 3694, 3701, 3706, 3714
 3717, 3729, 3730, 3733, 3758, 3767, 3774, 3776, 3780, 3784, 3786, 3795, 3809, 3820, 3827, 3834
 3838, 3841, 3842, 3843, 3844, 3845, 3853, 3857, 3858, 3860, 3862, 3867, 3868, 3880, 3900, 3902
 3912, 3914, 3917, 3925, 3929, 3933, 3936, 3937, 3938, 3942, 3944, 3950, 3955, 3956, 3961, 3970
 3972, 3974, 3977, 3978, 3980, 3986, 3987, 3990, 3991, 3995, 3996, 3998, 4001, 4008, 4010, 4011
 4013, 4014, 4017
*Elset, elset=_Surf-bottom_S4, internal, instance=metaball-1
  337,  507,  704,  845,  871, 1358, 1945, 1973, 1975, 2061, 2940, 3195, 3221, 3526, 3758, 3838
 3868, 3880, 3956, 3998, 4001, 4014
*Elset, elset=_Surf-bottom_S2, internal, instance=metaball-1
  369,  370,  808,  954, 1955, 2005, 2369, 3499, 3774, 3776, 3900, 3902, 3917, 3944, 4008, 4013
*Elset, elset=_Surf-bottom_S3, internal, instance=metaball-1
  406,  638,  767, 1629, 1925, 1926, 1929, 1932, 1941, 1942, 1946, 1960, 1963, 1969, 1978, 1994
 1995, 1999, 2003, 2008, 2010, 2013, 2110, 2156, 2163, 2183, 2255, 2506, 2654, 2795, 2862, 2888
 3320, 3457, 3465, 3485, 3618, 3714, 3730, 3827, 3843, 3853, 3867, 4010
*Elset, elset=_Surf-bottom_S1, internal, instance=metaball-1
  733,  818, 2386, 2573, 3551, 3608, 3631, 3653, 3733, 3820, 3841, 3857, 3860, 3912, 3929, 3933
 3955, 3972, 3977, 3980, 3987, 3996
*Surface, type=ELEMENT, name=Surf-bottom
_Surf-bottom_S4, S4
_Surf-bottom_S2, S2
_Surf-bottom_S3, S3
_Surf-bottom_S1, S1
*Elset, elset=_Surf-bound_S2, internal, instance=metaball-1
  181, 1827, 2099, 2566, 2833, 3248, 3304, 3376
*Elset, elset=_Surf-bound_S1, internal, instance=metaball-1
  566,  660,  979, 1087, 1141, 1168, 1210, 1480
*Elset, elset=_Surf-bound_S3, internal, instance=metaball-1
  657,  708,  952, 1729, 1777, 1910, 1991, 2155, 2248, 2278, 2494, 2658, 2671, 2673, 2674, 2680
 2739, 2750, 2798, 2831, 2832, 2840, 2864, 2865, 2873, 2875, 2880, 2928, 2932, 2933, 2985, 3021
 3024, 3059, 3071, 3106, 3124, 3129, 3138, 3145, 3151, 3156, 3168, 3169, 3193, 3209, 3211, 3214
 3220, 3230, 3240, 3241, 3264, 3267, 3269, 3285, 3290, 3293, 3295, 3300, 3301, 3302, 3307, 3313
 3317, 3329, 3335, 3339, 3359, 3373
*Elset, elset=_Surf-bound_S4, internal, instance=metaball-1
 1085, 1494, 2035, 2297, 2495, 2555, 3107, 3170
*Surface, type=ELEMENT, name=Surf-bound
_Surf-bound_S2, S2
_Surf-bound_S1, S1
_Surf-bound_S4, S4
_Surf-bound_S3, S3
** Constraint: Constraint-1
*Coupling, constraint name=Constraint-1, ref node=Set-RP-1, surface=Surf-bound
*Kinematic
** 
** INTEGRATED OUTPUT SECTIONS
** 
*Integrated Output Section, name=I-Section-1, surface=Surf-bottom, project orientation=NO
*End Assembly
** 
** MATERIALS
** 
*Material, name=PU
*Elastic
 5.25, 0.475
** 
** BOUNDARY CONDITIONS
** 
** Name: BC-bottom Type: Symmetry/Antisymmetry/Encastre
*Boundary
Set-bottom, ENCASTRE
** ----------------------------------------------------------------
** 
** STEP: Step-1
** 
*Step, name=Step-1, nlgeom=YES
*Static
1., 1., 1e-05, 1.
** 
** BOUNDARY CONDITIONS
** 
** Name: BC-RP Type: Displacement/Rotation
*Boundary
Set-RP-1, 1, 1, u1
Set-RP-1, 2, 2, u2
Set-RP-1, 3, 3, u3
Set-RP-1, 4, 4, ur1
Set-RP-1, 5, 5, ur2
Set-RP-1, 6, 6, ur3
** 
** OUTPUT REQUESTS
** 
*Restart, write, frequency=0
** 
** FIELD OUTPUT: F-Output-1
** 
*Output, field
*Node Output
U, 
*Element Output, directions=YES
S, 
** 
** HISTORY OUTPUT: H-Output-1
** 
*Output, history
*Integrated Output, section=I-Section-1
SOF, SOM
*End Step
